*SPEF "IEEE 1481-1999"
*DESIGN "mkViterbiDecoder"
*DATE "Sun Nov  9 14:42:15 2025"
*VENDOR "SYNOPSYS INC"
*PROGRAM "Synopsys Design Compiler cmos"
*VERSION "U-2022.12"
*DESIGN_FLOW "SYNTHESIS"
*DIVIDER /
*DELIMITER :
*BUS_DELIMITER []
*T_UNIT 1.0 NS
*C_UNIT 0.0010 PF
*R_UNIT 1000.0 KOHM
*L_UNIT 1.0 HENRY

*PORTS

CLK I *L 0.000e+00 *S 0.000e+00 0.000e+00 
RST_N I *L 0.000e+00 *S 0.000e+00 0.000e+00 
EN_start I *L 0.000e+00 *S 0.000e+00 0.000e+00 
RDY_start O *L 0.000e+00 *S 1.810e-02 2.038e-02 
done O *L 0.000e+00 *S 1.115e-02 1.018e-02 
RDY_done O *L 0.000e+00 *S 0.000e+00 0.000e+00 
inputError O *L 0.000e+00 *S 5.515e-03 5.149e-03 
RDY_inputError O *L 0.000e+00 *S 0.000e+00 0.000e+00 
fpError O *L 0.000e+00 *S 1.216e-04 1.134e-04 
RDY_fpError O *L 0.000e+00 *S 0.000e+00 0.000e+00 
EN_readReq_NM1 I *L 0.000e+00 *S 0.000e+00 0.000e+00 
readReq_NM1 O *L 0.000e+00 *S 0.000e+00 0.000e+00 
RDY_readReq_NM1 O *L 0.000e+00 *S 1.085e-02 9.918e-03 
readResp_NM1_resp\[31\] I *L 0.000e+00 *S 0.000e+00 0.000e+00 
readResp_NM1_resp\[30\] I *L 0.000e+00 *S 0.000e+00 0.000e+00 
readResp_NM1_resp\[29\] I *L 0.000e+00 *S 0.000e+00 0.000e+00 
readResp_NM1_resp\[28\] I *L 0.000e+00 *S 0.000e+00 0.000e+00 
readResp_NM1_resp\[27\] I *L 0.000e+00 *S 0.000e+00 0.000e+00 
readResp_NM1_resp\[26\] I *L 0.000e+00 *S 0.000e+00 0.000e+00 
readResp_NM1_resp\[25\] I *L 0.000e+00 *S 0.000e+00 0.000e+00 
readResp_NM1_resp\[24\] I *L 0.000e+00 *S 0.000e+00 0.000e+00 
readResp_NM1_resp\[23\] I *L 0.000e+00 *S 0.000e+00 0.000e+00 
readResp_NM1_resp\[22\] I *L 0.000e+00 *S 0.000e+00 0.000e+00 
readResp_NM1_resp\[21\] I *L 0.000e+00 *S 0.000e+00 0.000e+00 
readResp_NM1_resp\[20\] I *L 0.000e+00 *S 0.000e+00 0.000e+00 
readResp_NM1_resp\[19\] I *L 0.000e+00 *S 0.000e+00 0.000e+00 
readResp_NM1_resp\[18\] I *L 0.000e+00 *S 0.000e+00 0.000e+00 
readResp_NM1_resp\[17\] I *L 0.000e+00 *S 0.000e+00 0.000e+00 
readResp_NM1_resp\[16\] I *L 0.000e+00 *S 0.000e+00 0.000e+00 
readResp_NM1_resp\[15\] I *L 0.000e+00 *S 0.000e+00 0.000e+00 
readResp_NM1_resp\[14\] I *L 0.000e+00 *S 0.000e+00 0.000e+00 
readResp_NM1_resp\[13\] I *L 0.000e+00 *S 0.000e+00 0.000e+00 
readResp_NM1_resp\[12\] I *L 0.000e+00 *S 0.000e+00 0.000e+00 
readResp_NM1_resp\[11\] I *L 0.000e+00 *S 0.000e+00 0.000e+00 
readResp_NM1_resp\[10\] I *L 0.000e+00 *S 0.000e+00 0.000e+00 
readResp_NM1_resp\[9\] I *L 0.000e+00 *S 0.000e+00 0.000e+00 
readResp_NM1_resp\[8\] I *L 0.000e+00 *S 0.000e+00 0.000e+00 
readResp_NM1_resp\[7\] I *L 0.000e+00 *S 0.000e+00 0.000e+00 
readResp_NM1_resp\[6\] I *L 0.000e+00 *S 0.000e+00 0.000e+00 
readResp_NM1_resp\[5\] I *L 0.000e+00 *S 0.000e+00 0.000e+00 
readResp_NM1_resp\[4\] I *L 0.000e+00 *S 0.000e+00 0.000e+00 
readResp_NM1_resp\[3\] I *L 0.000e+00 *S 0.000e+00 0.000e+00 
readResp_NM1_resp\[2\] I *L 0.000e+00 *S 0.000e+00 0.000e+00 
readResp_NM1_resp\[1\] I *L 0.000e+00 *S 0.000e+00 0.000e+00 
readResp_NM1_resp\[0\] I *L 0.000e+00 *S 0.000e+00 0.000e+00 
EN_readResp_NM1 I *L 0.000e+00 *S 0.000e+00 0.000e+00 
RDY_readResp_NM1 O *L 0.000e+00 *S 9.552e-03 1.088e-02 
EN_readReq_NM2 I *L 0.000e+00 *S 0.000e+00 0.000e+00 
readReq_NM2 O *L 0.000e+00 *S 0.000e+00 0.000e+00 
RDY_readReq_NM2 O *L 0.000e+00 *S 1.116e-02 1.019e-02 
readResp_NM2_resp\[31\] I *L 0.000e+00 *S 0.000e+00 0.000e+00 
readResp_NM2_resp\[30\] I *L 0.000e+00 *S 0.000e+00 0.000e+00 
readResp_NM2_resp\[29\] I *L 0.000e+00 *S 0.000e+00 0.000e+00 
readResp_NM2_resp\[28\] I *L 0.000e+00 *S 0.000e+00 0.000e+00 
readResp_NM2_resp\[27\] I *L 0.000e+00 *S 0.000e+00 0.000e+00 
readResp_NM2_resp\[26\] I *L 0.000e+00 *S 0.000e+00 0.000e+00 
readResp_NM2_resp\[25\] I *L 0.000e+00 *S 0.000e+00 0.000e+00 
readResp_NM2_resp\[24\] I *L 0.000e+00 *S 0.000e+00 0.000e+00 
readResp_NM2_resp\[23\] I *L 0.000e+00 *S 0.000e+00 0.000e+00 
readResp_NM2_resp\[22\] I *L 0.000e+00 *S 0.000e+00 0.000e+00 
readResp_NM2_resp\[21\] I *L 0.000e+00 *S 0.000e+00 0.000e+00 
readResp_NM2_resp\[20\] I *L 0.000e+00 *S 0.000e+00 0.000e+00 
readResp_NM2_resp\[19\] I *L 0.000e+00 *S 0.000e+00 0.000e+00 
readResp_NM2_resp\[18\] I *L 0.000e+00 *S 0.000e+00 0.000e+00 
readResp_NM2_resp\[17\] I *L 0.000e+00 *S 0.000e+00 0.000e+00 
readResp_NM2_resp\[16\] I *L 0.000e+00 *S 0.000e+00 0.000e+00 
readResp_NM2_resp\[15\] I *L 0.000e+00 *S 0.000e+00 0.000e+00 
readResp_NM2_resp\[14\] I *L 0.000e+00 *S 0.000e+00 0.000e+00 
readResp_NM2_resp\[13\] I *L 0.000e+00 *S 0.000e+00 0.000e+00 
readResp_NM2_resp\[12\] I *L 0.000e+00 *S 0.000e+00 0.000e+00 
readResp_NM2_resp\[11\] I *L 0.000e+00 *S 0.000e+00 0.000e+00 
readResp_NM2_resp\[10\] I *L 0.000e+00 *S 0.000e+00 0.000e+00 
readResp_NM2_resp\[9\] I *L 0.000e+00 *S 0.000e+00 0.000e+00 
readResp_NM2_resp\[8\] I *L 0.000e+00 *S 0.000e+00 0.000e+00 
readResp_NM2_resp\[7\] I *L 0.000e+00 *S 0.000e+00 0.000e+00 
readResp_NM2_resp\[6\] I *L 0.000e+00 *S 0.000e+00 0.000e+00 
readResp_NM2_resp\[5\] I *L 0.000e+00 *S 0.000e+00 0.000e+00 
readResp_NM2_resp\[4\] I *L 0.000e+00 *S 0.000e+00 0.000e+00 
readResp_NM2_resp\[3\] I *L 0.000e+00 *S 0.000e+00 0.000e+00 
readResp_NM2_resp\[2\] I *L 0.000e+00 *S 0.000e+00 0.000e+00 
readResp_NM2_resp\[1\] I *L 0.000e+00 *S 0.000e+00 0.000e+00 
readResp_NM2_resp\[0\] I *L 0.000e+00 *S 0.000e+00 0.000e+00 
EN_readResp_NM2 I *L 0.000e+00 *S 0.000e+00 0.000e+00 
RDY_readResp_NM2 O *L 0.000e+00 *S 9.088e-03 1.037e-02 
EN_readReq_A1 I *L 0.000e+00 *S 0.000e+00 0.000e+00 
readReq_A1\[9\] O *L 0.000e+00 *S 1.216e-04 1.134e-04 
readReq_A1\[8\] O *L 0.000e+00 *S 1.216e-04 1.134e-04 
readReq_A1\[7\] O *L 0.000e+00 *S 1.216e-04 1.134e-04 
readReq_A1\[6\] O *L 0.000e+00 *S 1.216e-04 1.134e-04 
readReq_A1\[5\] O *L 0.000e+00 *S 1.216e-04 1.134e-04 
readReq_A1\[4\] O *L 0.000e+00 *S 1.216e-04 1.134e-04 
readReq_A1\[3\] O *L 0.000e+00 *S 1.216e-04 1.134e-04 
readReq_A1\[2\] O *L 0.000e+00 *S 1.216e-04 1.134e-04 
readReq_A1\[1\] O *L 0.000e+00 *S 1.216e-04 1.134e-04 
readReq_A1\[0\] O *L 0.000e+00 *S 1.216e-04 1.134e-04 
RDY_readReq_A1 O *L 0.000e+00 *S 1.588e-02 1.433e-02 
readResp_A1_resp\[31\] I *L 0.000e+00 *S 0.000e+00 0.000e+00 
readResp_A1_resp\[30\] I *L 0.000e+00 *S 0.000e+00 0.000e+00 
readResp_A1_resp\[29\] I *L 0.000e+00 *S 0.000e+00 0.000e+00 
readResp_A1_resp\[28\] I *L 0.000e+00 *S 0.000e+00 0.000e+00 
readResp_A1_resp\[27\] I *L 0.000e+00 *S 0.000e+00 0.000e+00 
readResp_A1_resp\[26\] I *L 0.000e+00 *S 0.000e+00 0.000e+00 
readResp_A1_resp\[25\] I *L 0.000e+00 *S 0.000e+00 0.000e+00 
readResp_A1_resp\[24\] I *L 0.000e+00 *S 0.000e+00 0.000e+00 
readResp_A1_resp\[23\] I *L 0.000e+00 *S 0.000e+00 0.000e+00 
readResp_A1_resp\[22\] I *L 0.000e+00 *S 0.000e+00 0.000e+00 
readResp_A1_resp\[21\] I *L 0.000e+00 *S 0.000e+00 0.000e+00 
readResp_A1_resp\[20\] I *L 0.000e+00 *S 0.000e+00 0.000e+00 
readResp_A1_resp\[19\] I *L 0.000e+00 *S 0.000e+00 0.000e+00 
readResp_A1_resp\[18\] I *L 0.000e+00 *S 0.000e+00 0.000e+00 
readResp_A1_resp\[17\] I *L 0.000e+00 *S 0.000e+00 0.000e+00 
readResp_A1_resp\[16\] I *L 0.000e+00 *S 0.000e+00 0.000e+00 
readResp_A1_resp\[15\] I *L 0.000e+00 *S 0.000e+00 0.000e+00 
readResp_A1_resp\[14\] I *L 0.000e+00 *S 0.000e+00 0.000e+00 
readResp_A1_resp\[13\] I *L 0.000e+00 *S 0.000e+00 0.000e+00 
readResp_A1_resp\[12\] I *L 0.000e+00 *S 0.000e+00 0.000e+00 
readResp_A1_resp\[11\] I *L 0.000e+00 *S 0.000e+00 0.000e+00 
readResp_A1_resp\[10\] I *L 0.000e+00 *S 0.000e+00 0.000e+00 
readResp_A1_resp\[9\] I *L 0.000e+00 *S 0.000e+00 0.000e+00 
readResp_A1_resp\[8\] I *L 0.000e+00 *S 0.000e+00 0.000e+00 
readResp_A1_resp\[7\] I *L 0.000e+00 *S 0.000e+00 0.000e+00 
readResp_A1_resp\[6\] I *L 0.000e+00 *S 0.000e+00 0.000e+00 
readResp_A1_resp\[5\] I *L 0.000e+00 *S 0.000e+00 0.000e+00 
readResp_A1_resp\[4\] I *L 0.000e+00 *S 0.000e+00 0.000e+00 
readResp_A1_resp\[3\] I *L 0.000e+00 *S 0.000e+00 0.000e+00 
readResp_A1_resp\[2\] I *L 0.000e+00 *S 0.000e+00 0.000e+00 
readResp_A1_resp\[1\] I *L 0.000e+00 *S 0.000e+00 0.000e+00 
readResp_A1_resp\[0\] I *L 0.000e+00 *S 0.000e+00 0.000e+00 
EN_readResp_A1 I *L 0.000e+00 *S 0.000e+00 0.000e+00 
RDY_readResp_A1 O *L 0.000e+00 *S 1.762e-02 1.986e-02 
EN_readReq_B1 I *L 0.000e+00 *S 0.000e+00 0.000e+00 
readReq_B1\[9\] O *L 0.000e+00 *S 1.216e-04 1.134e-04 
readReq_B1\[8\] O *L 0.000e+00 *S 1.216e-04 1.134e-04 
readReq_B1\[7\] O *L 0.000e+00 *S 1.216e-04 1.134e-04 
readReq_B1\[6\] O *L 0.000e+00 *S 1.216e-04 1.134e-04 
readReq_B1\[5\] O *L 0.000e+00 *S 1.216e-04 1.134e-04 
readReq_B1\[4\] O *L 0.000e+00 *S 1.216e-04 1.134e-04 
readReq_B1\[3\] O *L 0.000e+00 *S 1.216e-04 1.134e-04 
readReq_B1\[2\] O *L 0.000e+00 *S 1.216e-04 1.134e-04 
readReq_B1\[1\] O *L 0.000e+00 *S 1.216e-04 1.134e-04 
readReq_B1\[0\] O *L 0.000e+00 *S 1.216e-04 1.134e-04 
RDY_readReq_B1 O *L 0.000e+00 *S 2.964e-02 2.748e-02 
readResp_B1_resp\[31\] I *L 0.000e+00 *S 0.000e+00 0.000e+00 
readResp_B1_resp\[30\] I *L 0.000e+00 *S 0.000e+00 0.000e+00 
readResp_B1_resp\[29\] I *L 0.000e+00 *S 0.000e+00 0.000e+00 
readResp_B1_resp\[28\] I *L 0.000e+00 *S 0.000e+00 0.000e+00 
readResp_B1_resp\[27\] I *L 0.000e+00 *S 0.000e+00 0.000e+00 
readResp_B1_resp\[26\] I *L 0.000e+00 *S 0.000e+00 0.000e+00 
readResp_B1_resp\[25\] I *L 0.000e+00 *S 0.000e+00 0.000e+00 
readResp_B1_resp\[24\] I *L 0.000e+00 *S 0.000e+00 0.000e+00 
readResp_B1_resp\[23\] I *L 0.000e+00 *S 0.000e+00 0.000e+00 
readResp_B1_resp\[22\] I *L 0.000e+00 *S 0.000e+00 0.000e+00 
readResp_B1_resp\[21\] I *L 0.000e+00 *S 0.000e+00 0.000e+00 
readResp_B1_resp\[20\] I *L 0.000e+00 *S 0.000e+00 0.000e+00 
readResp_B1_resp\[19\] I *L 0.000e+00 *S 0.000e+00 0.000e+00 
readResp_B1_resp\[18\] I *L 0.000e+00 *S 0.000e+00 0.000e+00 
readResp_B1_resp\[17\] I *L 0.000e+00 *S 0.000e+00 0.000e+00 
readResp_B1_resp\[16\] I *L 0.000e+00 *S 0.000e+00 0.000e+00 
readResp_B1_resp\[15\] I *L 0.000e+00 *S 0.000e+00 0.000e+00 
readResp_B1_resp\[14\] I *L 0.000e+00 *S 0.000e+00 0.000e+00 
readResp_B1_resp\[13\] I *L 0.000e+00 *S 0.000e+00 0.000e+00 
readResp_B1_resp\[12\] I *L 0.000e+00 *S 0.000e+00 0.000e+00 
readResp_B1_resp\[11\] I *L 0.000e+00 *S 0.000e+00 0.000e+00 
readResp_B1_resp\[10\] I *L 0.000e+00 *S 0.000e+00 0.000e+00 
readResp_B1_resp\[9\] I *L 0.000e+00 *S 0.000e+00 0.000e+00 
readResp_B1_resp\[8\] I *L 0.000e+00 *S 0.000e+00 0.000e+00 
readResp_B1_resp\[7\] I *L 0.000e+00 *S 0.000e+00 0.000e+00 
readResp_B1_resp\[6\] I *L 0.000e+00 *S 0.000e+00 0.000e+00 
readResp_B1_resp\[5\] I *L 0.000e+00 *S 0.000e+00 0.000e+00 
readResp_B1_resp\[4\] I *L 0.000e+00 *S 0.000e+00 0.000e+00 
readResp_B1_resp\[3\] I *L 0.000e+00 *S 0.000e+00 0.000e+00 
readResp_B1_resp\[2\] I *L 0.000e+00 *S 0.000e+00 0.000e+00 
readResp_B1_resp\[1\] I *L 0.000e+00 *S 0.000e+00 0.000e+00 
readResp_B1_resp\[0\] I *L 0.000e+00 *S 0.000e+00 0.000e+00 
EN_readResp_B1 I *L 0.000e+00 *S 0.000e+00 0.000e+00 
RDY_readResp_B1 O *L 0.000e+00 *S 1.901e-02 2.137e-02 
EN_readReq_Input1 I *L 0.000e+00 *S 0.000e+00 0.000e+00 
readReq_Input1\[9\] O *L 0.000e+00 *S 1.216e-04 1.134e-04 
readReq_Input1\[8\] O *L 0.000e+00 *S 1.216e-04 1.134e-04 
readReq_Input1\[7\] O *L 0.000e+00 *S 1.216e-04 1.134e-04 
readReq_Input1\[6\] O *L 0.000e+00 *S 1.216e-04 1.134e-04 
readReq_Input1\[5\] O *L 0.000e+00 *S 1.216e-04 1.134e-04 
readReq_Input1\[4\] O *L 0.000e+00 *S 1.216e-04 1.134e-04 
readReq_Input1\[3\] O *L 0.000e+00 *S 1.216e-04 1.134e-04 
readReq_Input1\[2\] O *L 0.000e+00 *S 1.216e-04 1.134e-04 
readReq_Input1\[1\] O *L 0.000e+00 *S 1.216e-04 1.134e-04 
readReq_Input1\[0\] O *L 0.000e+00 *S 1.216e-04 1.134e-04 
RDY_readReq_Input1 O *L 0.000e+00 *S 1.145e-02 1.045e-02 
readResp_Input1_resp\[31\] I *L 0.000e+00 *S 0.000e+00 0.000e+00 
readResp_Input1_resp\[30\] I *L 0.000e+00 *S 0.000e+00 0.000e+00 
readResp_Input1_resp\[29\] I *L 0.000e+00 *S 0.000e+00 0.000e+00 
readResp_Input1_resp\[28\] I *L 0.000e+00 *S 0.000e+00 0.000e+00 
readResp_Input1_resp\[27\] I *L 0.000e+00 *S 0.000e+00 0.000e+00 
readResp_Input1_resp\[26\] I *L 0.000e+00 *S 0.000e+00 0.000e+00 
readResp_Input1_resp\[25\] I *L 0.000e+00 *S 0.000e+00 0.000e+00 
readResp_Input1_resp\[24\] I *L 0.000e+00 *S 0.000e+00 0.000e+00 
readResp_Input1_resp\[23\] I *L 0.000e+00 *S 0.000e+00 0.000e+00 
readResp_Input1_resp\[22\] I *L 0.000e+00 *S 0.000e+00 0.000e+00 
readResp_Input1_resp\[21\] I *L 0.000e+00 *S 0.000e+00 0.000e+00 
readResp_Input1_resp\[20\] I *L 0.000e+00 *S 0.000e+00 0.000e+00 
readResp_Input1_resp\[19\] I *L 0.000e+00 *S 0.000e+00 0.000e+00 
readResp_Input1_resp\[18\] I *L 0.000e+00 *S 0.000e+00 0.000e+00 
readResp_Input1_resp\[17\] I *L 0.000e+00 *S 0.000e+00 0.000e+00 
readResp_Input1_resp\[16\] I *L 0.000e+00 *S 0.000e+00 0.000e+00 
readResp_Input1_resp\[15\] I *L 0.000e+00 *S 0.000e+00 0.000e+00 
readResp_Input1_resp\[14\] I *L 0.000e+00 *S 0.000e+00 0.000e+00 
readResp_Input1_resp\[13\] I *L 0.000e+00 *S 0.000e+00 0.000e+00 
readResp_Input1_resp\[12\] I *L 0.000e+00 *S 0.000e+00 0.000e+00 
readResp_Input1_resp\[11\] I *L 0.000e+00 *S 0.000e+00 0.000e+00 
readResp_Input1_resp\[10\] I *L 0.000e+00 *S 0.000e+00 0.000e+00 
readResp_Input1_resp\[9\] I *L 0.000e+00 *S 0.000e+00 0.000e+00 
readResp_Input1_resp\[8\] I *L 0.000e+00 *S 0.000e+00 0.000e+00 
readResp_Input1_resp\[7\] I *L 0.000e+00 *S 0.000e+00 0.000e+00 
readResp_Input1_resp\[6\] I *L 0.000e+00 *S 0.000e+00 0.000e+00 
readResp_Input1_resp\[5\] I *L 0.000e+00 *S 0.000e+00 0.000e+00 
readResp_Input1_resp\[4\] I *L 0.000e+00 *S 0.000e+00 0.000e+00 
readResp_Input1_resp\[3\] I *L 0.000e+00 *S 0.000e+00 0.000e+00 
readResp_Input1_resp\[2\] I *L 0.000e+00 *S 0.000e+00 0.000e+00 
readResp_Input1_resp\[1\] I *L 0.000e+00 *S 0.000e+00 0.000e+00 
readResp_Input1_resp\[0\] I *L 0.000e+00 *S 0.000e+00 0.000e+00 
EN_readResp_Input1 I *L 0.000e+00 *S 0.000e+00 0.000e+00 
RDY_readResp_Input1 O *L 0.000e+00 *S 1.800e-02 2.027e-02 
EN_writeReq_Output I *L 0.000e+00 *S 0.000e+00 0.000e+00 
writeReq_Output\[42\] O *L 0.000e+00 *S 1.216e-04 1.134e-04 
writeReq_Output\[41\] O *L 0.000e+00 *S 1.216e-04 1.134e-04 
writeReq_Output\[40\] O *L 0.000e+00 *S 1.216e-04 1.134e-04 
writeReq_Output\[39\] O *L 0.000e+00 *S 1.216e-04 1.134e-04 
writeReq_Output\[38\] O *L 0.000e+00 *S 1.216e-04 1.134e-04 
writeReq_Output\[37\] O *L 0.000e+00 *S 1.216e-04 1.134e-04 
writeReq_Output\[36\] O *L 0.000e+00 *S 1.216e-04 1.134e-04 
writeReq_Output\[35\] O *L 0.000e+00 *S 1.216e-04 1.134e-04 
writeReq_Output\[34\] O *L 0.000e+00 *S 1.216e-04 1.134e-04 
writeReq_Output\[33\] O *L 0.000e+00 *S 1.216e-04 1.134e-04 
writeReq_Output\[32\] O *L 0.000e+00 *S 1.216e-04 1.134e-04 
writeReq_Output\[31\] O *L 0.000e+00 *S 1.216e-04 1.134e-04 
writeReq_Output\[30\] O *L 0.000e+00 *S 1.216e-04 1.134e-04 
writeReq_Output\[29\] O *L 0.000e+00 *S 1.216e-04 1.134e-04 
writeReq_Output\[28\] O *L 0.000e+00 *S 1.216e-04 1.134e-04 
writeReq_Output\[27\] O *L 0.000e+00 *S 1.216e-04 1.134e-04 
writeReq_Output\[26\] O *L 0.000e+00 *S 1.216e-04 1.134e-04 
writeReq_Output\[25\] O *L 0.000e+00 *S 1.216e-04 1.134e-04 
writeReq_Output\[24\] O *L 0.000e+00 *S 1.216e-04 1.134e-04 
writeReq_Output\[23\] O *L 0.000e+00 *S 1.216e-04 1.134e-04 
writeReq_Output\[22\] O *L 0.000e+00 *S 1.216e-04 1.134e-04 
writeReq_Output\[21\] O *L 0.000e+00 *S 1.216e-04 1.134e-04 
writeReq_Output\[20\] O *L 0.000e+00 *S 1.216e-04 1.134e-04 
writeReq_Output\[19\] O *L 0.000e+00 *S 1.216e-04 1.134e-04 
writeReq_Output\[18\] O *L 0.000e+00 *S 1.216e-04 1.134e-04 
writeReq_Output\[17\] O *L 0.000e+00 *S 1.216e-04 1.134e-04 
writeReq_Output\[16\] O *L 0.000e+00 *S 1.216e-04 1.134e-04 
writeReq_Output\[15\] O *L 0.000e+00 *S 1.216e-04 1.134e-04 
writeReq_Output\[14\] O *L 0.000e+00 *S 1.216e-04 1.134e-04 
writeReq_Output\[13\] O *L 0.000e+00 *S 1.216e-04 1.134e-04 
writeReq_Output\[12\] O *L 0.000e+00 *S 1.216e-04 1.134e-04 
writeReq_Output\[11\] O *L 0.000e+00 *S 1.216e-04 1.134e-04 
writeReq_Output\[10\] O *L 0.000e+00 *S 1.216e-04 1.134e-04 
writeReq_Output\[9\] O *L 0.000e+00 *S 1.216e-04 1.134e-04 
writeReq_Output\[8\] O *L 0.000e+00 *S 1.216e-04 1.134e-04 
writeReq_Output\[7\] O *L 0.000e+00 *S 1.216e-04 1.134e-04 
writeReq_Output\[6\] O *L 0.000e+00 *S 1.216e-04 1.134e-04 
writeReq_Output\[5\] O *L 0.000e+00 *S 1.216e-04 1.134e-04 
writeReq_Output\[4\] O *L 0.000e+00 *S 1.216e-04 1.134e-04 
writeReq_Output\[3\] O *L 0.000e+00 *S 1.216e-04 1.134e-04 
writeReq_Output\[2\] O *L 0.000e+00 *S 1.216e-04 1.134e-04 
writeReq_Output\[1\] O *L 0.000e+00 *S 1.216e-04 1.134e-04 
writeReq_Output\[0\] O *L 0.000e+00 *S 1.216e-04 1.134e-04 
RDY_writeReq_Output O *L 0.000e+00 *S 1.938e-02 1.813e-02 
EN_readReq_BTB1 I *L 0.000e+00 *S 0.000e+00 0.000e+00 
readReq_BTB1\[9\] O *L 0.000e+00 *S 1.216e-04 1.134e-04 
readReq_BTB1\[8\] O *L 0.000e+00 *S 1.216e-04 1.134e-04 
readReq_BTB1\[7\] O *L 0.000e+00 *S 1.216e-04 1.134e-04 
readReq_BTB1\[6\] O *L 0.000e+00 *S 1.216e-04 1.134e-04 
readReq_BTB1\[5\] O *L 0.000e+00 *S 1.216e-04 1.134e-04 
readReq_BTB1\[4\] O *L 0.000e+00 *S 1.216e-04 1.134e-04 
readReq_BTB1\[3\] O *L 0.000e+00 *S 1.216e-04 1.134e-04 
readReq_BTB1\[2\] O *L 0.000e+00 *S 1.216e-04 1.134e-04 
readReq_BTB1\[1\] O *L 0.000e+00 *S 1.216e-04 1.134e-04 
readReq_BTB1\[0\] O *L 0.000e+00 *S 1.216e-04 1.134e-04 
RDY_readReq_BTB1 O *L 0.000e+00 *S 2.496e-02 2.197e-02 
readResp_BTB1_resp\[31\] I *L 0.000e+00 *S 0.000e+00 0.000e+00 
readResp_BTB1_resp\[30\] I *L 0.000e+00 *S 0.000e+00 0.000e+00 
readResp_BTB1_resp\[29\] I *L 0.000e+00 *S 0.000e+00 0.000e+00 
readResp_BTB1_resp\[28\] I *L 0.000e+00 *S 0.000e+00 0.000e+00 
readResp_BTB1_resp\[27\] I *L 0.000e+00 *S 0.000e+00 0.000e+00 
readResp_BTB1_resp\[26\] I *L 0.000e+00 *S 0.000e+00 0.000e+00 
readResp_BTB1_resp\[25\] I *L 0.000e+00 *S 0.000e+00 0.000e+00 
readResp_BTB1_resp\[24\] I *L 0.000e+00 *S 0.000e+00 0.000e+00 
readResp_BTB1_resp\[23\] I *L 0.000e+00 *S 0.000e+00 0.000e+00 
readResp_BTB1_resp\[22\] I *L 0.000e+00 *S 0.000e+00 0.000e+00 
readResp_BTB1_resp\[21\] I *L 0.000e+00 *S 0.000e+00 0.000e+00 
readResp_BTB1_resp\[20\] I *L 0.000e+00 *S 0.000e+00 0.000e+00 
readResp_BTB1_resp\[19\] I *L 0.000e+00 *S 0.000e+00 0.000e+00 
readResp_BTB1_resp\[18\] I *L 0.000e+00 *S 0.000e+00 0.000e+00 
readResp_BTB1_resp\[17\] I *L 0.000e+00 *S 0.000e+00 0.000e+00 
readResp_BTB1_resp\[16\] I *L 0.000e+00 *S 0.000e+00 0.000e+00 
readResp_BTB1_resp\[15\] I *L 0.000e+00 *S 0.000e+00 0.000e+00 
readResp_BTB1_resp\[14\] I *L 0.000e+00 *S 0.000e+00 0.000e+00 
readResp_BTB1_resp\[13\] I *L 0.000e+00 *S 0.000e+00 0.000e+00 
readResp_BTB1_resp\[12\] I *L 0.000e+00 *S 0.000e+00 0.000e+00 
readResp_BTB1_resp\[11\] I *L 0.000e+00 *S 0.000e+00 0.000e+00 
readResp_BTB1_resp\[10\] I *L 0.000e+00 *S 0.000e+00 0.000e+00 
readResp_BTB1_resp\[9\] I *L 0.000e+00 *S 0.000e+00 0.000e+00 
readResp_BTB1_resp\[8\] I *L 0.000e+00 *S 0.000e+00 0.000e+00 
readResp_BTB1_resp\[7\] I *L 0.000e+00 *S 0.000e+00 0.000e+00 
readResp_BTB1_resp\[6\] I *L 0.000e+00 *S 0.000e+00 0.000e+00 
readResp_BTB1_resp\[5\] I *L 0.000e+00 *S 0.000e+00 0.000e+00 
readResp_BTB1_resp\[4\] I *L 0.000e+00 *S 0.000e+00 0.000e+00 
readResp_BTB1_resp\[3\] I *L 0.000e+00 *S 0.000e+00 0.000e+00 
readResp_BTB1_resp\[2\] I *L 0.000e+00 *S 0.000e+00 0.000e+00 
readResp_BTB1_resp\[1\] I *L 0.000e+00 *S 0.000e+00 0.000e+00 
readResp_BTB1_resp\[0\] I *L 0.000e+00 *S 0.000e+00 0.000e+00 
EN_readResp_BTB1 I *L 0.000e+00 *S 0.000e+00 0.000e+00 
RDY_readResp_BTB1 O *L 0.000e+00 *S 3.206e-02 3.542e-02 
EN_writeReq_BTB I *L 0.000e+00 *S 0.000e+00 0.000e+00 
writeReq_BTB\[41\] O *L 0.000e+00 *S 1.216e-04 1.134e-04 
writeReq_BTB\[40\] O *L 0.000e+00 *S 1.216e-04 1.134e-04 
writeReq_BTB\[39\] O *L 0.000e+00 *S 1.216e-04 1.134e-04 
writeReq_BTB\[38\] O *L 0.000e+00 *S 1.216e-04 1.134e-04 
writeReq_BTB\[37\] O *L 0.000e+00 *S 1.216e-04 1.134e-04 
writeReq_BTB\[36\] O *L 0.000e+00 *S 1.216e-04 1.134e-04 
writeReq_BTB\[35\] O *L 0.000e+00 *S 1.216e-04 1.134e-04 
writeReq_BTB\[34\] O *L 0.000e+00 *S 1.216e-04 1.134e-04 
writeReq_BTB\[33\] O *L 0.000e+00 *S 1.216e-04 1.134e-04 
writeReq_BTB\[32\] O *L 0.000e+00 *S 1.216e-04 1.134e-04 
writeReq_BTB\[31\] O *L 0.000e+00 *S 1.216e-04 1.134e-04 
writeReq_BTB\[30\] O *L 0.000e+00 *S 1.216e-04 1.134e-04 
writeReq_BTB\[29\] O *L 0.000e+00 *S 1.216e-04 1.134e-04 
writeReq_BTB\[28\] O *L 0.000e+00 *S 1.216e-04 1.134e-04 
writeReq_BTB\[27\] O *L 0.000e+00 *S 1.216e-04 1.134e-04 
writeReq_BTB\[26\] O *L 0.000e+00 *S 1.216e-04 1.134e-04 
writeReq_BTB\[25\] O *L 0.000e+00 *S 1.216e-04 1.134e-04 
writeReq_BTB\[24\] O *L 0.000e+00 *S 1.216e-04 1.134e-04 
writeReq_BTB\[23\] O *L 0.000e+00 *S 1.216e-04 1.134e-04 
writeReq_BTB\[22\] O *L 0.000e+00 *S 1.216e-04 1.134e-04 
writeReq_BTB\[21\] O *L 0.000e+00 *S 1.216e-04 1.134e-04 
writeReq_BTB\[20\] O *L 0.000e+00 *S 1.216e-04 1.134e-04 
writeReq_BTB\[19\] O *L 0.000e+00 *S 1.216e-04 1.134e-04 
writeReq_BTB\[18\] O *L 0.000e+00 *S 1.216e-04 1.134e-04 
writeReq_BTB\[17\] O *L 0.000e+00 *S 1.216e-04 1.134e-04 
writeReq_BTB\[16\] O *L 0.000e+00 *S 1.216e-04 1.134e-04 
writeReq_BTB\[15\] O *L 0.000e+00 *S 1.216e-04 1.134e-04 
writeReq_BTB\[14\] O *L 0.000e+00 *S 1.216e-04 1.134e-04 
writeReq_BTB\[13\] O *L 0.000e+00 *S 1.216e-04 1.134e-04 
writeReq_BTB\[12\] O *L 0.000e+00 *S 1.216e-04 1.134e-04 
writeReq_BTB\[11\] O *L 0.000e+00 *S 1.216e-04 1.134e-04 
writeReq_BTB\[10\] O *L 0.000e+00 *S 1.216e-04 1.134e-04 
writeReq_BTB\[9\] O *L 0.000e+00 *S 1.216e-04 1.134e-04 
writeReq_BTB\[8\] O *L 0.000e+00 *S 1.216e-04 1.134e-04 
writeReq_BTB\[7\] O *L 0.000e+00 *S 1.216e-04 1.134e-04 
writeReq_BTB\[6\] O *L 0.000e+00 *S 1.216e-04 1.134e-04 
writeReq_BTB\[5\] O *L 0.000e+00 *S 1.216e-04 1.134e-04 
writeReq_BTB\[4\] O *L 0.000e+00 *S 1.216e-04 1.134e-04 
writeReq_BTB\[3\] O *L 0.000e+00 *S 1.216e-04 1.134e-04 
writeReq_BTB\[2\] O *L 0.000e+00 *S 1.216e-04 1.134e-04 
writeReq_BTB\[1\] O *L 0.000e+00 *S 1.216e-04 1.134e-04 
writeReq_BTB\[0\] O *L 0.000e+00 *S 1.216e-04 1.134e-04 
RDY_writeReq_BTB O *L 0.000e+00 *S 2.038e-02 1.826e-02 

*R_NET CLK 4.950e+01
*DRIVER CLK
*CELL NULL
*C2_R1_C1 2.475e+01 1.009e+01 2.475e+01 
*LOADS
*RC writeReqFIFO_Output/clk_gate_D_OUT_reg/U1:A 0.000e+00
*RC writeReqFIFO_Output/clk_gate_D_OUT_reg/main_gate:A2 0.000e+00
*RC writeReqFIFO_BTB/clk_gate_D_OUT_reg/U1:A 0.000e+00
*RC writeReqFIFO_BTB/clk_gate_D_OUT_reg/main_gate:A2 0.000e+00
*RC readRespFIFO_NM2/clk_gate_D_OUT_reg/U1:A 0.000e+00
*RC readRespFIFO_NM2/clk_gate_D_OUT_reg/main_gate:A2 0.000e+00
*RC readRespFIFO_NM1/clk_gate_D_OUT_reg/U1:A 0.000e+00
*RC readRespFIFO_NM1/clk_gate_D_OUT_reg/main_gate:A2 0.000e+00
*RC readRespFIFO_Input1/clk_gate_D_OUT_reg/U1:A 0.000e+00
*RC readRespFIFO_Input1/clk_gate_D_OUT_reg/main_gate:A2 0.000e+00
*RC readRespFIFO_BTB1/clk_gate_D_OUT_reg/U1:A 0.000e+00
*RC readRespFIFO_BTB1/clk_gate_D_OUT_reg/main_gate:A2 0.000e+00
*RC readRespFIFO_B1/clk_gate_D_OUT_reg/U1:A 0.000e+00
*RC readRespFIFO_B1/clk_gate_D_OUT_reg/main_gate:A2 0.000e+00
*RC readRespFIFO_A1/clk_gate_D_OUT_reg/U1:A 0.000e+00
*RC readRespFIFO_A1/clk_gate_D_OUT_reg/main_gate:A2 0.000e+00
*RC readReqFIFO_Input1/clk_gate_D_OUT_reg/U1:A 0.000e+00
*RC readReqFIFO_Input1/clk_gate_D_OUT_reg/main_gate:A2 0.000e+00
*RC readReqFIFO_BTB1/clk_gate_D_OUT_reg/U1:A 0.000e+00
*RC readReqFIFO_BTB1/clk_gate_D_OUT_reg/main_gate:A2 0.000e+00
*RC readReqFIFO_B1/clk_gate_D_OUT_reg/U1:A 0.000e+00
*RC readReqFIFO_B1/clk_gate_D_OUT_reg/main_gate:A2 0.000e+00
*RC readReqFIFO_A1/clk_gate_D_OUT_reg/U1:A 0.000e+00
*RC readReqFIFO_A1/clk_gate_D_OUT_reg/main_gate:A2 0.000e+00
*RC clk_gate_aValue_reg/U1:A 0.000e+00
*RC clk_gate_aValue_reg/main_gate:A2 0.000e+00
*RC clk_gate_bValue_reg/U1:A 0.000e+00
*RC clk_gate_bValue_reg/main_gate:A2 0.000e+00
*RC clk_gate_bestMinIdx_reg/U1:A 0.000e+00
*RC clk_gate_bestMinIdx_reg/main_gate:A2 0.000e+00
*RC clk_gate_currState_reg/U1:A 0.000e+00
*RC clk_gate_currState_reg/main_gate:A2 0.000e+00
*RC clk_gate_finalMaxProb_reg/U1:A 0.000e+00
*RC clk_gate_finalMaxProb_reg/main_gate:A2 0.000e+00
*RC clk_gate_fpAddResult1_reg/U1:A 0.000e+00
*RC clk_gate_fpAddResult1_reg/main_gate:A2 0.000e+00
*RC clk_gate_inputIndex_reg/U1:A 0.000e+00
*RC clk_gate_inputIndex_reg/main_gate:A2 0.000e+00
*RC clk_gate_inputValue_reg/U1:A 0.000e+00
*RC clk_gate_inputValue_reg/main_gate:A2 0.000e+00
*RC clk_gate_maxProb_reg/U1:A 0.000e+00
*RC clk_gate_maxProb_reg/main_gate:A2 0.000e+00
*RC clk_gate_minIdx_reg/U1:A 0.000e+00
*RC clk_gate_minIdx_reg/main_gate:A2 0.000e+00
*RC clk_gate_nValue_reg/U1:A 0.000e+00
*RC clk_gate_nValue_reg/main_gate:A2 0.000e+00
*RC clk_gate_outputOffset_reg/U1:A 0.000e+00
*RC clk_gate_outputOffset_reg/main_gate:A2 0.000e+00
*RC clk_gate_prevProb_reg/U1:A 0.000e+00
*RC clk_gate_prevProb_reg/main_gate:A2 0.000e+00
*RC clk_gate_prevStateIndex_reg/U1:A 0.000e+00
*RC clk_gate_prevStateIndex_reg/main_gate:A2 0.000e+00
*RC clk_gate_stateCount_reg/U1:A 0.000e+00
*RC clk_gate_stateCount_reg/main_gate:A2 0.000e+00
*RC clk_gate_stateIndex_reg/U1:A 0.000e+00
*RC clk_gate_stateIndex_reg/main_gate:A2 0.000e+00
*RC clk_gate_timeStep_reg/U1:A 0.000e+00
*RC clk_gate_timeStep_reg/main_gate:A2 0.000e+00
*RC clk_gate_traceBackTime_reg/U1:A 0.000e+00
*RC clk_gate_traceBackTime_reg/main_gate:A2 0.000e+00
*RC writeReqFIFO_Output/empty_reg_reg:CLK 0.000e+00
*RC writeReqFIFO_BTB/empty_reg_reg:CLK 0.000e+00
*RC readRespFIFO_NM2/empty_reg_reg:CLK 0.000e+00
*RC readRespFIFO_NM1/empty_reg_reg:CLK 0.000e+00
*RC readRespFIFO_Input1/empty_reg_reg:CLK 0.000e+00
*RC readRespFIFO_BTB1/empty_reg_reg:CLK 0.000e+00
*RC readRespFIFO_B1/empty_reg_reg:CLK 0.000e+00
*RC readRespFIFO_A1/empty_reg_reg:CLK 0.000e+00
*RC readReqFIFO_NM2/empty_reg_reg:CLK 0.000e+00
*RC readReqFIFO_NM1/empty_reg_reg:CLK 0.000e+00
*RC readReqFIFO_Input1/empty_reg_reg:CLK 0.000e+00
*RC readReqFIFO_BTB1/empty_reg_reg:CLK 0.000e+00
*RC readReqFIFO_B1/empty_reg_reg:CLK 0.000e+00
*RC rg_start_reg:CLK 0.000e+00
*RC rg_done_reg:CLK 0.000e+00
*RC readReqFIFO_A1/empty_reg_reg:CLK 0.000e+00
*END

*R_NET RST_N 3.755e+00
*DRIVER RST_N
*CELL NULL
*C2_R1_C1 1.877e+00 1.957e-01 1.877e+00 
*LOADS
*RC U1052:A 0.000e+00
*RC U2209:A2 0.000e+00
*RC U2873:A2 0.000e+00
*RC U3319:A1 0.000e+00
*RC U3322:A1 0.000e+00
*RC U3325:A1 0.000e+00
*END

*R_NET EN_start 6.052e-01
*DRIVER EN_start
*CELL NULL
*C2_R1_C1 3.026e-01 2.130e-02 3.026e-01 
*LOADS
*RC U2352:A1 0.000e+00
*END

*R_NET done 1.108e+00
*DRIVER rg_done_reg:Q
*CELL DFFX1_LVT
*C2_R1_C1 5.542e-01 7.955e-02 5.542e-01 
*LOADS
*RC U1309:A2 0.000e+00
*RC U2351:A1 0.000e+00
*RC done 0.000e+00
*END

*R_NET inputError 5.580e-01
*DRIVER rg_input_err_reg:Q
*CELL DFFX1_LVT
*C2_R1_C1 2.790e-01 4.880e-02 2.790e-01 
*LOADS
*RC U1533:A1 0.000e+00
*RC inputError 0.000e+00
*END

*R_NET fpError 9.440e-03
*DRIVER rg_fp_err_reg:Q
*CELL DFFX1_LVT
*C2_R1_C1 4.720e-03 2.130e-02 4.720e-03 
*LOADS
*RC fpError 0.000e+00
*END

*R_NET EN_readReq_NM1 5.953e-01
*DRIVER EN_readReq_NM1
*CELL NULL
*C2_R1_C1 2.976e-01 2.130e-02 2.976e-01 
*LOADS
*RC readReqFIFO_NM1/U3:A 0.000e+00
*END

*R_NET RDY_readReq_NM1 1.086e+00
*DRIVER readReqFIFO_NM1/empty_reg_reg:Q
*CELL DFFX1_LVT
*C2_R1_C1 5.431e-01 7.955e-02 5.431e-01 
*LOADS
*RC readReqFIFO_NM1/U4:A2 0.000e+00
*RC U1699:A1 0.000e+00
*RC RDY_readReq_NM1 0.000e+00
*END

*R_NET readResp_NM1_resp\[31\] 5.561e-01
*DRIVER readResp_NM1_resp\[31\]
*CELL NULL
*C2_R1_C1 2.781e-01 2.130e-02 2.781e-01 
*LOADS
*RC readRespFIFO_NM1/D_OUT_reg_31_:D 0.000e+00
*END

*R_NET readResp_NM1_resp\[30\] 5.561e-01
*DRIVER readResp_NM1_resp\[30\]
*CELL NULL
*C2_R1_C1 2.781e-01 2.130e-02 2.781e-01 
*LOADS
*RC readRespFIFO_NM1/D_OUT_reg_30_:D 0.000e+00
*END

*R_NET readResp_NM1_resp\[29\] 5.561e-01
*DRIVER readResp_NM1_resp\[29\]
*CELL NULL
*C2_R1_C1 2.781e-01 2.130e-02 2.781e-01 
*LOADS
*RC readRespFIFO_NM1/D_OUT_reg_29_:D 0.000e+00
*END

*R_NET readResp_NM1_resp\[28\] 5.561e-01
*DRIVER readResp_NM1_resp\[28\]
*CELL NULL
*C2_R1_C1 2.781e-01 2.130e-02 2.781e-01 
*LOADS
*RC readRespFIFO_NM1/D_OUT_reg_28_:D 0.000e+00
*END

*R_NET readResp_NM1_resp\[27\] 5.561e-01
*DRIVER readResp_NM1_resp\[27\]
*CELL NULL
*C2_R1_C1 2.781e-01 2.130e-02 2.781e-01 
*LOADS
*RC readRespFIFO_NM1/D_OUT_reg_27_:D 0.000e+00
*END

*R_NET readResp_NM1_resp\[26\] 5.561e-01
*DRIVER readResp_NM1_resp\[26\]
*CELL NULL
*C2_R1_C1 2.781e-01 2.130e-02 2.781e-01 
*LOADS
*RC readRespFIFO_NM1/D_OUT_reg_26_:D 0.000e+00
*END

*R_NET readResp_NM1_resp\[25\] 5.561e-01
*DRIVER readResp_NM1_resp\[25\]
*CELL NULL
*C2_R1_C1 2.781e-01 2.130e-02 2.781e-01 
*LOADS
*RC readRespFIFO_NM1/D_OUT_reg_25_:D 0.000e+00
*END

*R_NET readResp_NM1_resp\[24\] 5.561e-01
*DRIVER readResp_NM1_resp\[24\]
*CELL NULL
*C2_R1_C1 2.781e-01 2.130e-02 2.781e-01 
*LOADS
*RC readRespFIFO_NM1/D_OUT_reg_24_:D 0.000e+00
*END

*R_NET readResp_NM1_resp\[23\] 5.561e-01
*DRIVER readResp_NM1_resp\[23\]
*CELL NULL
*C2_R1_C1 2.781e-01 2.130e-02 2.781e-01 
*LOADS
*RC readRespFIFO_NM1/D_OUT_reg_23_:D 0.000e+00
*END

*R_NET readResp_NM1_resp\[22\] 5.561e-01
*DRIVER readResp_NM1_resp\[22\]
*CELL NULL
*C2_R1_C1 2.781e-01 2.130e-02 2.781e-01 
*LOADS
*RC readRespFIFO_NM1/D_OUT_reg_22_:D 0.000e+00
*END

*R_NET readResp_NM1_resp\[21\] 5.561e-01
*DRIVER readResp_NM1_resp\[21\]
*CELL NULL
*C2_R1_C1 2.781e-01 2.130e-02 2.781e-01 
*LOADS
*RC readRespFIFO_NM1/D_OUT_reg_21_:D 0.000e+00
*END

*R_NET readResp_NM1_resp\[20\] 5.561e-01
*DRIVER readResp_NM1_resp\[20\]
*CELL NULL
*C2_R1_C1 2.781e-01 2.130e-02 2.781e-01 
*LOADS
*RC readRespFIFO_NM1/D_OUT_reg_20_:D 0.000e+00
*END

*R_NET readResp_NM1_resp\[19\] 5.561e-01
*DRIVER readResp_NM1_resp\[19\]
*CELL NULL
*C2_R1_C1 2.781e-01 2.130e-02 2.781e-01 
*LOADS
*RC readRespFIFO_NM1/D_OUT_reg_19_:D 0.000e+00
*END

*R_NET readResp_NM1_resp\[18\] 5.561e-01
*DRIVER readResp_NM1_resp\[18\]
*CELL NULL
*C2_R1_C1 2.781e-01 2.130e-02 2.781e-01 
*LOADS
*RC readRespFIFO_NM1/D_OUT_reg_18_:D 0.000e+00
*END

*R_NET readResp_NM1_resp\[17\] 5.561e-01
*DRIVER readResp_NM1_resp\[17\]
*CELL NULL
*C2_R1_C1 2.781e-01 2.130e-02 2.781e-01 
*LOADS
*RC readRespFIFO_NM1/D_OUT_reg_17_:D 0.000e+00
*END

*R_NET readResp_NM1_resp\[16\] 5.561e-01
*DRIVER readResp_NM1_resp\[16\]
*CELL NULL
*C2_R1_C1 2.781e-01 2.130e-02 2.781e-01 
*LOADS
*RC readRespFIFO_NM1/D_OUT_reg_16_:D 0.000e+00
*END
